Version 4
SHEET 1 1620 680
WIRE -752 -256 -864 -256
WIRE -704 -256 -752 -256
WIRE -576 -256 -624 -256
WIRE -448 -256 -576 -256
WIRE 16 -256 -352 -256
WIRE 128 -256 16 -256
WIRE 272 -256 128 -256
WIRE 368 -256 272 -256
WIRE 496 -256 368 -256
WIRE 608 -256 496 -256
WIRE 752 -256 608 -256
WIRE 272 -240 272 -256
WIRE 368 -240 368 -256
WIRE -576 -208 -576 -256
WIRE 128 -208 128 -256
WIRE -432 -144 -432 -208
WIRE 272 -128 272 -176
WIRE 368 -128 368 -176
WIRE 368 -128 272 -128
WIRE -576 -96 -576 -128
WIRE 496 -80 496 -256
WIRE -864 -64 -864 -256
WIRE -752 -32 -752 -256
WIRE -656 -32 -752 -32
WIRE -624 -32 -656 -32
WIRE -432 -32 -432 -64
WIRE -432 -32 -528 -32
WIRE -352 -32 -432 -32
WIRE -224 -32 -272 -32
WIRE 128 -32 128 -128
WIRE 336 -32 128 -32
WIRE 432 -32 416 -32
WIRE 16 0 16 -256
WIRE 128 0 128 -32
WIRE -224 48 -224 -32
WIRE -128 48 -224 48
WIRE -48 48 -128 48
WIRE 272 48 272 -128
WIRE 272 48 192 48
WIRE 608 64 608 -256
WIRE -752 96 -752 -32
WIRE -128 96 -128 48
WIRE -656 128 -656 -32
WIRE -608 128 -656 128
WIRE -432 128 -432 -32
WIRE -432 128 -544 128
WIRE -224 128 -224 48
WIRE 16 128 16 96
WIRE 64 128 16 128
WIRE 128 128 128 96
WIRE 128 128 64 128
WIRE 64 160 64 128
WIRE 272 160 272 48
WIRE -864 272 -864 16
WIRE -752 272 -752 160
WIRE -752 272 -864 272
WIRE -224 272 -224 192
WIRE -224 272 -752 272
WIRE -128 272 -128 176
WIRE -128 272 -224 272
WIRE 64 272 64 240
WIRE 64 272 -128 272
WIRE 272 272 272 240
WIRE 272 272 64 272
WIRE 496 272 496 16
WIRE 496 272 272 272
WIRE 608 272 608 128
WIRE 608 272 496 272
WIRE 752 272 608 272
WIRE -224 304 -224 272
FLAG -224 304 0
SYMBOL res -720 -240 R270
WINDOW 0 32 56 VTop 2
WINDOW 3 0 56 VBottom 2
SYMATTR InstName R1
SYMATTR Value 15
SYMBOL res -592 -224 R0
SYMATTR InstName R2
SYMATTR Value 220
SYMBOL pnp -528 -96 R90
SYMATTR InstName Q1
SYMATTR Value BC556B
SYMBOL pmos -352 -208 M270
SYMATTR InstName M1
SYMATTR Value IRFP9240
SYMBOL res -448 -160 R0
SYMATTR InstName R3
SYMATTR Value 220
SYMBOL npn -48 0 R0
WINDOW 0 33 50 Left 2
WINDOW 3 74 68 Left 2
SYMATTR InstName Q2
SYMATTR Value BC546B
SYMBOL npn 192 0 M0
WINDOW 0 38 47 Left 2
WINDOW 3 76 38 Left 2
SYMATTR InstName Q3
SYMATTR Value BC546B
SYMBOL res 48 144 R0
SYMATTR InstName R6
SYMATTR Value 220
SYMBOL res 432 -48 R90
WINDOW 0 0 56 VBottom 2
WINDOW 3 32 56 VTop 2
SYMATTR InstName R9
SYMATTR Value 47
SYMBOL polcap -240 128 R0
WINDOW 3 24 56 Left 2
SYMATTR Value 47
SYMATTR InstName C1
SYMATTR Description Capacitor
SYMATTR Type cap
SYMATTR SpiceLine V=6.3 Irms=65m Rser=2.1 Lser=0 mfg="Nichicon" pn="UPR0J470MAH" type="Al electrolytic"
SYMBOL cap -544 112 R90
WINDOW 0 0 32 VBottom 2
WINDOW 3 32 32 VTop 2
SYMATTR InstName C2
SYMATTR Value .1
SYMATTR SpiceLine V=16 Irms=0 Rser=0.007 Lser=0
SYMBOL polcap 352 -240 R0
WINDOW 3 24 56 Left 2
SYMATTR Value 47
SYMATTR InstName C3
SYMATTR Description Capacitor
SYMATTR Type cap
SYMATTR SpiceLine V=10 Irms=120m Rser=1 Lser=0 mfg="Panasonic" pn="ECA1AFQ470" type="Al electrolytic"
SYMBOL polcap 592 64 R0
WINDOW 3 24 56 Left 2
SYMATTR Value 150
SYMATTR InstName C4
SYMATTR Description Capacitor
SYMATTR Type cap
SYMATTR SpiceLine V=35 Irms=585m Rser=0.12 Lser=0 mfg="Panasonic" pn="ECA1VFQ151L" type="Al electrolytic"
SYMBOL polcap -768 96 R0
WINDOW 3 24 56 Left 2
SYMATTR Value 2200
SYMATTR InstName C5
SYMATTR Description Capacitor
SYMATTR Type cap
SYMATTR SpiceLine V=50 Irms=1.62 Rser=0.038 Lser=0
SYMBOL voltage -864 -80 R0
WINDOW 123 0 0 Left 2
WINDOW 39 0 0 Left 2
SYMATTR InstName V1
SYMATTR Value 10
SYMBOL pnp 432 16 M180
SYMATTR InstName Q4
SYMATTR Value 2SA1837
SYMBOL res 112 -224 R0
SYMATTR InstName R5
SYMATTR Value 1K
SYMBOL res -256 -48 R90
WINDOW 0 0 56 VBottom 2
WINDOW 3 32 56 VTop 2
SYMATTR InstName R4
SYMATTR Value 1K
SYMBOL res 256 144 R0
SYMATTR InstName R7
SYMATTR Value 1K
SYMBOL References\\LT1009 272 -208 R0
SYMATTR InstName U2
SYMBOL res -144 80 R0
SYMATTR InstName R8
SYMATTR Value 2200
TEXT -784 280 Left 2 !.tran 0 5 0
