Version 4
SHEET 1 1316 680
WIRE 608 48 256 48
WIRE 704 48 608 48
WIRE 704 64 704 48
WIRE 256 80 256 48
WIRE 704 176 704 144
WIRE 976 176 704 176
WIRE 1312 176 1264 176
WIRE 256 272 256 144
WIRE 480 288 400 288
WIRE 912 288 480 288
WIRE 400 368 400 288
WIRE 480 368 480 288
WIRE 608 368 608 48
WIRE 912 400 912 288
WIRE 1312 400 1312 176
WIRE 1312 400 912 400
WIRE 400 480 400 448
WIRE 480 480 480 448
WIRE 256 592 256 352
WIRE 400 592 400 560
WIRE 400 592 256 592
WIRE 480 592 480 560
WIRE 480 592 400 592
WIRE 608 592 608 448
WIRE 608 592 480 592
WIRE 1120 592 1120 336
WIRE 1120 592 608 592
FLAG 400 592 0
SYMBOL voltage 256 256 R0
WINDOW 123 0 0 Left 2
WINDOW 39 24 124 Left 2
SYMATTR InstName V1
SYMATTR Value 12.7
SYMATTR SpiceLine Rser=.5
SYMBOL res 384 464 R0
SYMATTR InstName R3
SYMATTR Value 2
SYMBOL diode 272 144 R180
WINDOW 0 24 64 Left 2
WINDOW 3 24 0 Left 2
SYMATTR InstName D2
SYMATTR Value MURS120
SYMBOL current 608 368 R0
WINDOW 123 0 0 Left 2
WINDOW 39 0 0 Left 2
SYMATTR InstName I1
SYMATTR Value .5
SYMBOL current 400 368 R0
WINDOW 123 0 0 Left 2
WINDOW 39 0 0 Left 2
SYMATTR InstName I2
SYMATTR Value 28mA
SYMBOL current 480 368 R0
WINDOW 123 0 0 Left 2
WINDOW 39 0 0 Left 2
SYMATTR InstName I3
SYMATTR Value 28mA
SYMBOL res 464 464 R0
SYMATTR InstName R1
SYMATTR Value 2
SYMBOL res 688 48 R0
SYMATTR InstName R4
SYMATTR Value 39
SYMBOL PowerProducts\\LT1121-5 1120 224 R0
SYMATTR InstName U1
TEXT 800 232 Left 2 !.tran 0 4 0
