Version 4
SHEET 1 2088 680
WIRE 112 -64 112 -144
WIRE 848 -64 112 -64
WIRE 112 -16 112 -64
WIRE 112 -16 32 -16
WIRE 192 -16 112 -16
WIRE 32 80 32 48
WIRE 64 80 32 80
WIRE 848 80 848 -64
WIRE 1168 80 848 80
WIRE 1232 80 1168 80
WIRE 1584 80 1488 80
WIRE 1680 80 1584 80
WIRE 2000 80 1936 80
WIRE 1584 128 1584 80
WIRE 384 160 192 160
WIRE 512 160 384 160
WIRE 592 160 512 160
WIRE 736 160 592 160
WIRE 2000 208 2000 80
WIRE 192 224 192 160
WIRE 32 240 32 80
WIRE 592 240 592 160
WIRE 1360 240 1360 176
WIRE 1584 240 1584 208
WIRE 1584 240 1360 240
WIRE 464 256 320 256
WIRE 736 256 736 160
WIRE 1584 256 1584 240
WIRE 1808 256 1808 176
WIRE -16 304 -48 304
WIRE 384 320 384 160
WIRE 400 320 384 320
WIRE 192 352 192 304
WIRE 320 352 320 256
WIRE 320 352 192 352
WIRE 2000 352 2000 272
WIRE 32 384 32 336
WIRE 1584 384 1584 336
WIRE 400 432 400 400
WIRE 400 432 320 432
WIRE 192 448 192 352
WIRE 400 464 400 432
WIRE 320 480 320 432
WIRE 320 480 224 480
WIRE -48 576 -48 304
WIRE 32 576 32 464
WIRE 32 576 -48 576
WIRE 192 576 192 512
WIRE 192 576 32 576
WIRE 368 576 192 576
WIRE 400 576 400 544
WIRE 400 576 368 576
WIRE 592 576 592 336
WIRE 592 576 400 576
WIRE 736 576 736 320
WIRE 736 576 592 576
FLAG 112 -224 0
FLAG 368 576 0
FLAG 1808 256 0
FLAG 1168 16 0
FLAG 1584 16 0
FLAG 2000 16 0
FLAG 1584 384 0
FLAG 2000 352 0
DATAFLAG 512 160 ""
SYMBOL pmos 144 160 M180
SYMATTR InstName M1
SYMATTR Value IRFP9240
SYMBOL res 176 -32 R0
SYMATTR InstName R1
SYMATTR Value 1
SYMBOL zener 48 48 R180
WINDOW 0 24 64 Left 2
WINDOW 3 24 0 Left 2
SYMATTR InstName D1
SYMATTR Value 1N750
SYMBOL res 160 64 R90
WINDOW 0 0 56 VBottom 2
WINDOW 3 32 56 VTop 2
SYMATTR InstName R2
SYMATTR Value 470
SYMBOL njf -16 240 R0
SYMATTR InstName J1
SYMATTR Value LSK489A
SYMBOL res 560 240 R90
WINDOW 0 0 56 VBottom 2
WINDOW 3 32 56 VTop 2
SYMATTR InstName R6
SYMATTR Value 470
SYMBOL pmos 544 336 M180
SYMATTR InstName M2
SYMATTR Value IRFP9240
SYMBOL voltage 112 -128 R180
WINDOW 0 24 96 Left 2
WINDOW 3 24 16 Left 2
WINDOW 123 0 0 Left 2
WINDOW 39 0 0 Left 2
SYMATTR InstName V1
SYMATTR Value 20
SYMBOL res 16 368 R0
SYMATTR InstName R3
SYMATTR Value 220
SYMBOL LT1084-5 1808 80 R0
SYMATTR InstName U1
SYMBOL LT1085 1360 80 R0
SYMATTR InstName U2
SYMBOL res 1568 112 R0
SYMATTR InstName R8
SYMATTR Value 150
SYMBOL res 1568 240 R0
SYMATTR InstName R9
SYMATTR Value 800
SYMBOL polcap 1568 80 M180
WINDOW 0 24 57 Left 2
WINDOW 3 24 8 Left 2
SYMATTR InstName C1
SYMATTR Value 10µ
SYMATTR Description Capacitor
SYMATTR Type cap
SYMATTR SpiceLine V=6.3 Irms=0 Rser=4 Lser=0 mfg="AVX" pn="TAJA106M006" type="Tantalum"
SYMBOL polcap 1984 80 M180
WINDOW 0 24 57 Left 2
WINDOW 3 24 8 Left 2
SYMATTR InstName C2
SYMATTR Value 10µ
SYMATTR Description Capacitor
SYMATTR Type cap
SYMATTR SpiceLine V=6.3 Irms=0 Rser=4 Lser=0 mfg="AVX" pn="TAJA106M006" type="Tantalum"
SYMBOL polcap 1152 80 M180
WINDOW 0 24 57 Left 2
WINDOW 3 24 8 Left 2
SYMATTR InstName C3
SYMATTR Value 10µ
SYMATTR Description Capacitor
SYMATTR Type cap
SYMATTR SpiceLine V=6.3 Irms=0 Rser=4 Lser=0 mfg="AVX" pn="TAJA106M006" type="Tantalum"
SYMBOL load 1984 208 R0
WINDOW 123 0 0 Left 2
WINDOW 39 0 0 Left 2
SYMATTR InstName I2
SYMATTR Value .250
SYMBOL res 176 208 R0
SYMATTR InstName R10
SYMATTR Value 1K
SYMBOL References/LT1009 192 480 R0
SYMATTR InstName U3
SYMBOL res 384 304 R0
SYMATTR InstName R4
SYMATTR Value 1K
SYMBOL res 384 448 R0
SYMATTR InstName R5
SYMATTR Value 0
TEXT -56 584 Left 2 !.tran 0 4 0
