Version 4
SHEET 1 2344 1268
WIRE 64 -336 -96 -336
WIRE 96 -336 64 -336
WIRE 320 -336 96 -336
WIRE 560 -336 400 -336
WIRE -96 -288 -96 -336
WIRE 560 -240 560 -336
WIRE 96 -208 96 -336
WIRE -336 -176 -368 -176
WIRE -304 -176 -336 -176
WIRE -240 -176 -304 -176
WIRE -96 -176 -96 -208
WIRE -96 -176 -176 -176
WIRE 64 -176 -96 -176
WIRE -96 -144 -96 -176
WIRE -368 -16 -368 -176
WIRE -96 -16 -96 -64
WIRE 96 -16 96 -144
WIRE 560 -16 560 -160
WIRE 64 48 -96 48
WIRE 96 48 64 48
WIRE 320 48 96 48
WIRE 560 48 400 48
WIRE -96 96 -96 48
WIRE -368 112 -368 64
WIRE 560 144 560 48
WIRE 96 176 96 48
WIRE -304 208 -304 -176
WIRE -240 208 -304 208
WIRE -96 208 -96 176
WIRE -96 208 -176 208
WIRE 64 208 -96 208
WIRE -96 240 -96 208
WIRE -96 368 -96 320
WIRE 96 368 96 240
WIRE 560 368 560 224
WIRE 64 448 -96 448
WIRE 96 448 64 448
WIRE 320 448 96 448
WIRE 560 448 400 448
WIRE -96 496 -96 448
WIRE 560 544 560 448
WIRE 96 576 96 448
WIRE -304 608 -304 208
WIRE -240 608 -304 608
WIRE -96 608 -96 576
WIRE -96 608 -176 608
WIRE 64 608 -96 608
WIRE -96 640 -96 608
WIRE -96 768 -96 720
WIRE 96 768 96 640
WIRE 560 768 560 624
WIRE 64 864 -96 864
WIRE 96 864 64 864
WIRE 320 864 96 864
WIRE 560 864 400 864
WIRE -96 912 -96 864
WIRE 560 960 560 864
WIRE 96 992 96 864
WIRE -304 1024 -304 608
WIRE -240 1024 -304 1024
WIRE -96 1024 -96 992
WIRE -96 1024 -176 1024
WIRE 64 1024 -96 1024
WIRE -96 1056 -96 1024
WIRE -96 1184 -96 1136
WIRE 96 1184 96 1056
WIRE 560 1184 560 1040
FLAG 96 -16 0
FLAG -96 -16 0
FLAG 560 -16 0
FLAG 96 368 0
FLAG -96 368 0
FLAG 560 368 0
FLAG 64 -336 EUGENE
FLAG 64 48 TI_New
FLAG -368 112 0
FLAG -336 -176 in
FLAG 96 768 0
FLAG -96 768 0
FLAG 560 768 0
FLAG 64 448 OLD
FLAG 96 1184 0
FLAG -96 1184 0
FLAG 560 1184 0
FLAG 64 864 Helmut
SYMBOL TL431ED 96 -176 M0
SYMATTR InstName X1
SYMBOL res -80 -160 M0
SYMATTR InstName R1
SYMATTR Value 8.25k
SYMBOL res -80 -304 M0
SYMATTR InstName R2
SYMATTR Value 15k
SYMBOL res 304 -352 M90
WINDOW 0 0 56 VBottom 2
WINDOW 3 32 56 VTop 2
SYMATTR InstName R3
SYMATTR Value 232
SYMBOL voltage 560 -256 M0
SYMATTR InstName V1
SYMATTR Value 9.32V
SYMBOL res -80 224 M0
SYMATTR InstName R4
SYMATTR Value 8.25k
SYMBOL res -80 80 M0
SYMATTR InstName R5
SYMATTR Value 15k
SYMBOL res 304 32 M90
WINDOW 0 0 56 VBottom 2
WINDOW 3 32 56 VTop 2
SYMATTR InstName R6
SYMATTR Value 232
SYMBOL voltage 560 128 M0
SYMATTR InstName V2
SYMATTR Value 9.32V
SYMBOL voltage -368 -32 M0
WINDOW 123 24 128 Left 2
WINDOW 39 0 0 Left 2
SYMATTR Value2 AC 0.0001
SYMATTR InstName V3
SYMATTR Value ""
SYMBOL cap -176 -192 R90
WINDOW 0 0 32 VBottom 2
WINDOW 3 32 32 VTop 2
SYMATTR InstName C1
SYMATTR Value 100
SYMBOL cap -176 192 R90
WINDOW 0 0 32 VBottom 2
WINDOW 3 32 32 VTop 2
SYMATTR InstName C2
SYMATTR Value 100
SYMBOL res -80 624 M0
SYMATTR InstName R7
SYMATTR Value 8.25k
SYMBOL res -80 480 M0
SYMATTR InstName R8
SYMATTR Value 15k
SYMBOL res 304 432 M90
WINDOW 0 0 56 VBottom 2
WINDOW 3 32 56 VTop 2
SYMATTR InstName R9
SYMATTR Value 232
SYMBOL voltage 560 528 M0
SYMATTR InstName V4
SYMATTR Value 9.32V
SYMBOL cap -176 592 R90
WINDOW 0 0 32 VBottom 2
WINDOW 3 32 32 VTop 2
SYMATTR InstName C3
SYMATTR Value 100
SYMBOL res -80 1040 M0
SYMATTR InstName R10
SYMATTR Value 8.25k
SYMBOL res -80 896 M0
SYMATTR InstName R11
SYMATTR Value 15k
SYMBOL res 304 848 M90
WINDOW 0 0 56 VBottom 2
WINDOW 3 32 56 VTop 2
SYMATTR InstName R12
SYMATTR Value 232
SYMBOL voltage 560 944 M0
SYMATTR InstName V5
SYMATTR Value 9.32V
SYMBOL cap -176 1008 R90
WINDOW 0 0 32 VBottom 2
WINDOW 3 32 32 VTop 2
SYMATTR InstName C4
SYMATTR Value 100
SYMBOL TL431 96 1024 M0
WINDOW 3 29 -20 Left 2
SYMATTR Value TL431A
SYMATTR InstName U3
SYMBOL TL431 96 608 M0
WINDOW 3 29 -20 Left 2
SYMATTR Value TL431/TI
SYMATTR InstName U2
SYMBOL TL431 96 208 M0
WINDOW 3 29 -20 Left 2
SYMATTR Value TL431
SYMATTR InstName U1
TEXT -1336 -216 Left 2 !*******************************************************************\n** Released by: Analog eLab Design Center, Texas Instruments Inc.\n* Part: TL431\n* Date: 12/14/2009\n* Model Type: Transient and AC\n*******************************************************************\n.SUBCKT TL431 7 6 11\n*             K A FDBK\nV1 1 6 2.495\nR1 6 2 15.6\nC1 2 6 .5U\nR2 2 3 100\nC2 3 4 .08U\nR3 4 6 10\nGB1 6 8 VALUE = {IF(V(3,6)< 0 , 1.73*V(3,6) -1U , -1U)}\nD1 5 8 DCLAMP\nD2 7 8 DCLAMP\nV4 5 6 2\nG1 6 2 1 11 0.11\n.MODEL DCLAMP D (IS=13.5N RS=25M N=1.59\n+ CJO=45P VJ=.75 M=.302 TT=50.4N BV=34V IBV=1MA)\n.ENDS
TEXT -920 -368 Left 2 !;tran 0 1 0 100n
TEXT -928 -328 Left 2 !.ac oct 10 100 10meg
TEXT -1328 576 Left 2 !*****************************************************************************\n* TL431 MACROMODEL 3-26-92\n* REV N/A DBB\n*****************************************************************************\n*                             CATHODE\n*                              |  ANODE \n*                              |   |  REFERENCE\n*                              |   |   |\n.SUBCKT  TL431/TI 3  2  1\nV1  6  7  DC  1.4V\nI1  2  4  1E-3\nR1  1  2  1.2E6\nR2  4  2  RMOD 2.495E3\nR3  5  7  .2\nD1  3  6  DMOD1\nD2  2  3  DMOD1\nD3  2  7  DMOD2\nE1  5  2  POLY(2)  (4,2)  (1,2)  0  710  -710\n.MODEL RMOD RES (TC1=1.4E-5 TC2=-1E-6)\n.MODEL DMOD1 D (RS=.3)\n.MODEL DMOD2 D (RS=1E-6)\n.ENDS
TEXT 640 -200 Left 2 ;EUGENE
TEXT 656 192 Left 2 ;TI New
TEXT 664 608 Left 2 ;Old
TEXT -1304 -272 Left 2 ;TI New
TEXT -1312 520 Left 2 ;Old
TEXT 888 -216 Left 2 !* Model developed by Helmut Sennewald  6/27/2004\n* This TL431 model has been developed from the schematic in the datasheet.\n* It agrees with most of the test circuits and covers\n* Tempco, C-load stability, AC gain, reverse diode, noise, transient, Zout\n* Version 1.1\n*  Modified by Eugene Dvoskin for compliance with my TL431 symbol\n*         \n*                          CATHODE\n*                          |  ANODE \n*                          |   |  REFERENCE\n*                          |   |   |\n.SUBCKT TL431A K A R\nQ1 3 2 1 0 NPN1 2.70\nQ2 2 2 A 0 NPN1 1\nR1 1 A 800 TC1=0.00035\nR2 4 2 2.4k\nR3 4 3 7.2k\nR4 5 4 3.28k\nQ3 6 3 A 0 NPN1 1\nR5 7 6 4k\nQ4 10 5 7 0 NPN1 1\nQ5 K R 5 0 NPN1 1\nR6 2 12 1k\nQ6 11 12 A 0 NPN1 0.2\nQ9 K 11 13 0 NPN1 2\nQ10 K 14 A 0 NPN1 10\nR10 14 A 10k\nR9 13 14 150\nR7 K 8 800\nQ7 10 10 8 0 PNP1 1\nQ8 11 10 9 0 PNP1 1\nD2 A K D1\nD1 A 11 D3\nR8 K 9 800\nC1 K 11 20p\nC2 6 3 20p\nD3 11 R D2\n*\n* adjust output voltage with Is\n.MODEL NPN1 NPN(Is=0.8e-14 BF=100 VAF=100 TF=0.5e-9 RB=50 IKF=10m KF=1e-16  AF=1 RE=10)\n.MODEL PNP1 PNP(Is=1e-14 BF=50 VAF=50 TF=1e-8 IKF=2m KF=1e-16 AF=1)\n.MODEL D1 D(Is=1e-13 Rs=10 CJ0=20p)\n.MODEL D2 D(Is=1e-13 Rs=10 CJ0=2p BV=5 IBV=10u)\n.MODEL D3 D(Is=1e-13 Rs=10 CJ0=2p )\n* This TC1 does the trick for the total tempco\n.end
TEXT 664 1024 Left 2 ;Helmut
TEXT 896 -272 Left 2 ;Helmut
