Version 4
SHEET 1 2196 1632
WIRE -512 -352 -624 -352
WIRE -352 -352 -512 -352
WIRE -320 -352 -352 -352
WIRE -224 -352 -320 -352
WIRE 16 -352 -144 -352
WIRE -624 -304 -624 -352
WIRE -512 -304 -512 -352
WIRE 16 -256 16 -352
WIRE -320 -224 -320 -352
WIRE -512 -192 -512 -224
WIRE -352 -192 -512 -192
WIRE -512 -144 -512 -192
WIRE -624 -48 -624 -240
WIRE -512 -48 -512 -64
WIRE -512 -48 -624 -48
WIRE -320 -48 -320 -160
WIRE -320 -48 -512 -48
WIRE -320 -32 -320 -48
WIRE 16 -32 16 -176
WIRE -560 64 -704 64
WIRE -352 64 -560 64
WIRE -320 64 -352 64
WIRE -224 64 -320 64
WIRE 16 64 -144 64
WIRE -704 112 -704 64
WIRE 16 160 16 64
WIRE -320 192 -320 64
WIRE -560 224 -560 144
WIRE -352 224 -560 224
WIRE -560 256 -560 224
WIRE -560 368 -560 336
WIRE -320 368 -320 256
WIRE -320 368 -560 368
WIRE -320 384 -320 368
WIRE 16 384 16 240
WIRE -352 496 -512 496
WIRE -320 496 -352 496
WIRE -224 496 -320 496
WIRE 16 496 -144 496
WIRE 16 592 16 496
WIRE -320 624 -320 496
WIRE -512 656 -512 496
WIRE -352 656 -512 656
WIRE -320 816 -320 688
WIRE 16 816 16 672
WIRE -352 944 -512 944
WIRE -320 944 -352 944
WIRE -224 944 -320 944
WIRE 16 944 -144 944
WIRE 16 1040 16 944
WIRE -320 1072 -320 944
WIRE -512 1104 -512 944
WIRE -352 1104 -512 1104
WIRE -320 1264 -320 1136
WIRE 16 1264 16 1120
FLAG -320 -32 0
FLAG 16 -32 0
FLAG -352 -352 EUGENE
FLAG -320 384 0
FLAG 16 384 0
FLAG -352 64 TI_New
FLAG -320 816 0
FLAG 16 816 0
FLAG -352 496 OLD
FLAG -320 1264 0
FLAG 16 1264 0
FLAG -352 944 Helmut
FLAG -704 176 0
DATAFLAG -512 -352 ""
SYMBOL voltage 16 -272 M0
WINDOW 123 0 0 Left 2
WINDOW 39 0 0 Left 2
SYMATTR InstName V1
SYMATTR Value 6.0
SYMBOL res -128 -368 R90
WINDOW 0 0 56 VBottom 2
WINDOW 3 32 56 VTop 2
SYMATTR InstName R1
SYMATTR Value 33
SYMBOL voltage 16 144 M0
WINDOW 123 0 0 Left 2
WINDOW 39 0 0 Left 2
SYMATTR InstName V2
SYMATTR Value 5.3
SYMBOL res -128 48 R90
WINDOW 0 0 56 VBottom 2
WINDOW 3 32 56 VTop 2
SYMATTR InstName R2
SYMATTR Value 5.1
SYMBOL voltage 16 576 M0
SYMATTR InstName V3
SYMATTR Value 12.5V
SYMBOL res -128 480 R90
WINDOW 0 0 56 VBottom 2
WINDOW 3 32 56 VTop 2
SYMATTR InstName R3
SYMATTR Value 1k
SYMBOL voltage 16 1024 M0
SYMATTR InstName V4
SYMATTR Value 12.5V
SYMBOL res -128 928 R90
WINDOW 0 0 56 VBottom 2
WINDOW 3 32 56 VTop 2
SYMATTR InstName R4
SYMATTR Value 1k
SYMBOL TL431 -320 224 M0
WINDOW 3 29 -20 Left 2
SYMATTR InstName U1
SYMBOL TL431 -320 656 M0
WINDOW 3 29 -20 Left 2
SYMATTR Value TL431/TI
SYMATTR InstName U2
SYMBOL TL431 -320 1104 M0
WINDOW 3 29 -20 Left 2
SYMATTR Value TL431A
SYMATTR InstName U3
SYMBOL TL431ED -320 -192 M0
SYMATTR InstName X1
SYMBOL res -576 48 R0
SYMATTR InstName R5
SYMATTR Value 5K6
SYMBOL res -576 240 R0
SYMATTR InstName R6
SYMATTR Value 5K6
SYMBOL load -720 112 R0
WINDOW 123 0 0 Left 2
WINDOW 39 0 0 Left 2
SYMATTR InstName I1
SYMATTR Value 0.033
SYMBOL res -528 -320 R0
SYMATTR InstName R7
SYMATTR Value 5K6
SYMBOL res -528 -160 R0
SYMATTR InstName R8
SYMATTR Value 5K6
SYMBOL load -640 -304 R0
WINDOW 123 0 0 Left 2
WINDOW 39 0 0 Left 2
SYMATTR InstName I2
SYMATTR Value 0.000026
TEXT -1632 -72 Left 2 !*******************************************************************\n** Released by: Analog eLab Design Center, Texas Instruments Inc.\n* Part: TL431\n* Date: 12/14/2009\n* Model Type: Transient and AC\n*******************************************************************\n.SUBCKT TL431 7 6 11\n*             K A FDBK\nV1 1 6 2.495\nR1 6 2 15.6\nC1 2 6 .5U\nR2 2 3 100\nC2 3 4 .08U\nR3 4 6 10\nGB1 6 8 VALUE = {IF(V(3,6)< 0 , 1.73*V(3,6) -1U , -1U)}\nD1 5 8 DCLAMP\nD2 7 8 DCLAMP\nV4 5 6 2\nG1 6 2 1 11 0.11\n.MODEL DCLAMP D (IS=13.5N RS=25M N=1.59\n+ CJO=45P VJ=.75 M=.302 TT=50.4N BV=34V IBV=1MA)\n.ENDS
TEXT -1624 776 Left 2 !*****************************************************************************\n* TL431 MACROMODEL 3-26-92\n* REV N/A DBB\n*****************************************************************************\n*                                CATHODE\n*                                 |  ANODE \n*                                 |   |  REFERENCE\n*                                 |   |   |\n.SUBCKT  TL431/TI 3  2  1\nV1  6  7  DC  1.4V\nI1  2  4  1E-3\nR1  1  2  1.2E6\nR2  4  2  RMOD 2.495E3\nR3  5  7  .2\nD1  3  6  DMOD1\nD2  2  3  DMOD1\nD3  2  7  DMOD2\nE1  5  2  POLY(2)  (4,2)  (1,2)  0  710  -710\n.MODEL RMOD RES (TC1=1.4E-5 TC2=-1E-6)\n.MODEL DMOD1 D (RS=.3)\n.MODEL DMOD2 D (RS=1E-6)\n.ENDS
TEXT 96 -216 Left 2 ;EUGENE
TEXT -1584 -352 Left 2 !;noise V(TI_New) V2 oct 100 10 10meg
TEXT 104 200 Left 2 ;TI New
TEXT -1592 -128 Left 2 ;TI New
TEXT 104 632 Left 2 ;OLD
TEXT -1592 688 Left 2 ;OLD
TEXT -1584 -304 Left 2 !;noise V(Old) V3 oct 100 10 10meg
TEXT -1584 -392 Left 2 !;noise V(EUGENE) V1 oct 100 10 10meg
TEXT 256 -328 Left 2 !* Model developed by Helmut Sennewald  6/27/2004\n* This TL431 model has been developed from the schematic in the datasheet.\n* It agrees with most of the test circuits and covers\n* Tempco, C-load stability, AC gain, reverse diode, noise, transient, Zout\n* Version 1.1\n*  Modified by Eugene Dvoskin for compliance with TL431 symbol\n*         \n*                              CATHODE\n*                              |  ANODE \n*                              |   |  REFERENCE\n*                              |   |   |\n.SUBCKT TL431A K A R\nQ1 3 2 1 0 NPN1 2.70\nQ2 2 2 A 0 NPN1 1\nR1 1 A 800 TC1=0.00035\nR2 4 2 2.4k\nR3 4 3 7.2k\nR4 5 4 3.28k\nQ3 6 3 A 0 NPN1 1\nR5 7 6 4k\nQ4 10 5 7 0 NPN1 1\nQ5 K R 5 0 NPN1 1\nR6 2 12 1k\nQ6 11 12 A 0 NPN1 0.2\nQ9 K 11 13 0 NPN1 2\nQ10 K 14 A 0 NPN1 10\nR10 14 A 10k\nR9 13 14 150\nR7 K 8 800\nQ7 10 10 8 0 PNP1 1\nQ8 11 10 9 0 PNP1 1\nD2 A K D1\nD1 A 11 D3\nR8 K 9 800\nC1 K 11 20p\nC2 6 3 20p\nD3 11 R D2\n*\n* adjust output voltage with Is\n.MODEL NPN1 NPN(Is=0.8e-14 BF=100 VAF=100 TF=0.5e-9 RB=50 IKF=10m KF=1e-16  AF=1 RE=10)\n.MODEL PNP1 PNP(Is=1e-14 BF=50 VAF=50 TF=1e-8 IKF=2m KF=1e-16 AF=1)\n.MODEL D1 D(Is=1e-13 Rs=10 CJ0=20p)\n.MODEL D2 D(Is=1e-13 Rs=10 CJ0=2p BV=5 IBV=10u)\n.MODEL D3 D(Is=1e-13 Rs=10 CJ0=2p )\n* This TC1 does the trick for the total tempco\n.end
TEXT 104 1080 Left 2 ;Helmut
TEXT -1584 -256 Left 2 !;noise V(Helmut) V4 oct 100 10 10meg
TEXT -888 232 Left 2 !.tran 0 4 0
