Version 4
SHEET 1 1448 680
WIRE -16 -352 -48 -352
WIRE 272 -352 240 -352
WIRE -48 -208 -48 -352
WIRE 320 -208 -48 -208
WIRE -48 -176 -144 -176
WIRE 64 -176 -48 -176
WIRE 176 -176 64 -176
WIRE 272 -176 272 -352
WIRE 272 -176 176 -176
WIRE 320 -176 320 -208
WIRE 368 -176 320 -176
WIRE 400 -176 400 -208
WIRE 400 -176 368 -176
WIRE 480 -176 400 -176
WIRE 864 -176 480 -176
WIRE 368 -144 368 -176
WIRE 368 -144 304 -144
WIRE 64 -128 64 -176
WIRE 368 -96 368 -144
WIRE 544 -96 512 -96
WIRE 304 -80 304 -144
WIRE 480 -80 480 -176
WIRE 512 -80 512 -96
WIRE 512 -80 480 -80
WIRE 528 -80 512 -80
WIRE 864 -48 864 -176
WIRE 864 -48 784 -48
WIRE 944 -48 864 -48
WIRE 1024 -48 944 -48
WIRE 1104 -48 1024 -48
WIRE 64 -32 64 -48
WIRE 784 -16 784 -48
WIRE 864 -16 864 -48
WIRE 944 -16 944 -48
WIRE 1024 -16 1024 -48
WIRE 1104 -16 1104 -48
WIRE -48 0 -48 -176
WIRE 528 32 528 -80
WIRE 176 48 176 -176
WIRE 304 48 304 -16
WIRE 368 48 368 -16
WIRE 368 48 304 48
WIRE 480 48 368 48
WIRE 704 96 704 64
WIRE 784 96 784 64
WIRE 864 96 864 64
WIRE 944 96 944 64
WIRE 1024 96 1024 64
WIRE 1104 96 1104 64
WIRE -144 112 -144 -176
WIRE 368 112 368 48
WIRE -48 160 -48 80
WIRE 208 160 -48 160
WIRE 304 160 288 160
WIRE 528 176 528 128
WIRE 176 192 176 128
WIRE -48 208 -48 160
WIRE -48 208 -416 208
WIRE 704 208 704 176
WIRE 784 208 784 176
WIRE 864 208 864 176
WIRE 944 208 944 176
WIRE 1024 208 1024 176
WIRE 1104 208 1104 176
WIRE -144 224 -144 176
WIRE -144 224 -208 224
WIRE -48 240 -48 208
WIRE 0 240 -48 240
WIRE 112 240 80 240
WIRE -416 256 -416 208
WIRE -48 256 -48 240
WIRE 528 288 528 256
WIRE 528 288 480 288
WIRE -560 304 -640 304
WIRE -304 304 -320 304
WIRE -208 304 -208 224
WIRE -208 304 -224 304
WIRE -192 304 -208 304
WIRE 704 320 704 288
WIRE 784 320 784 288
WIRE 784 320 704 320
WIRE 864 320 864 288
WIRE 864 320 784 320
WIRE 944 320 944 288
WIRE 944 320 864 320
WIRE 1024 320 1024 288
WIRE 1024 320 944 320
WIRE 1104 320 1104 288
WIRE 1104 320 1024 320
WIRE -48 368 -48 352
WIRE 176 368 176 288
WIRE 368 368 368 208
WIRE 480 368 480 288
WIRE 864 368 864 320
FLAG 176 368 0
FLAG 368 368 0
FLAG 480 368 0
FLAG 400 -288 0
FLAG 64 -32 0
FLAG 112 -256 0
FLAG 864 368 0
FLAG -48 368 0
FLAG -320 304 0
FLAG -416 352 0
FLAG -640 304 0
SYMBOL npn2 112 192 R0
SYMATTR InstName Q1
SYMATTR Value BC847C
SYMBOL res 160 32 R0
SYMATTR InstName R1
SYMATTR Value 2K2
SYMBOL res 96 224 R90
WINDOW 0 0 56 VBottom 2
WINDOW 3 32 56 VTop 2
SYMATTR InstName R2
SYMATTR Value 25K
SYMBOL res -64 -16 R0
SYMATTR InstName R4
SYMATTR Value 3K3
SYMBOL res 688 80 R0
SYMATTR InstName R7
SYMATTR Value 173
SYMBOL res 768 80 R0
SYMATTR InstName R12
SYMATTR Value 173
SYMBOL res 848 80 R0
SYMATTR InstName R13
SYMATTR Value 173
SYMBOL res 928 80 R0
SYMATTR InstName R14
SYMATTR Value 173
SYMBOL res 1008 80 R0
SYMATTR InstName R15
SYMATTR Value 173
SYMBOL res 1088 80 R0
SYMATTR InstName R16
SYMATTR Value 173
SYMBOL res 688 192 R0
SYMATTR InstName R17
SYMATTR Value 173
SYMBOL res 768 192 R0
SYMATTR InstName R18
SYMATTR Value 173
SYMBOL res 848 192 R0
SYMATTR InstName R19
SYMATTR Value 173
SYMBOL res 928 192 R0
SYMATTR InstName R20
SYMATTR Value 173
SYMBOL res 1008 192 R0
SYMATTR InstName R21
SYMATTR Value 173
SYMBOL res 1088 192 R0
SYMATTR InstName R22
SYMATTR Value 173
SYMBOL voltage 400 -192 R180
WINDOW 0 24 96 Left 2
WINDOW 3 24 16 Left 2
WINDOW 123 0 0 Left 2
WINDOW 39 0 0 Left 2
SYMATTR InstName V3
SYMATTR Value 13.3
SYMBOL npn2 304 112 R0
SYMATTR InstName Q3
SYMATTR Value BC847C
SYMBOL res 304 144 R90
WINDOW 0 0 56 VBottom 2
WINDOW 3 32 56 VTop 2
SYMATTR InstName R5
SYMATTR Value 25K
SYMBOL res 352 -112 R0
SYMATTR InstName R23
SYMATTR Value 25K
SYMBOL res 48 -144 R0
SYMATTR InstName R11
SYMATTR Value 70
SYMBOL PowerProducts\\LT1084-5 112 -352 R0
SYMATTR InstName U1
SYMBOL res 928 -32 R0
SYMATTR InstName R28
SYMATTR Value 100
SYMBOL res 848 -32 R0
SYMATTR InstName R29
SYMATTR Value 100
SYMBOL res 768 -32 R0
SYMATTR InstName R30
SYMATTR Value 100
SYMBOL res 1008 -32 R0
SYMATTR InstName R32
SYMATTR Value 100
SYMBOL res 1088 -32 R0
SYMATTR InstName R33
SYMATTR Value 100
SYMBOL pmos 480 128 M180
SYMATTR InstName M1
SYMATTR Value IRF9640
SYMBOL res 512 160 R0
SYMATTR InstName R6
SYMATTR Value 173
SYMBOL polcap -160 112 R0
WINDOW 3 24 56 Left 2
SYMATTR Value 220µF
SYMATTR InstName C2
SYMATTR Description Capacitor
SYMATTR Type cap
SYMATTR SpiceLine V=63 Irms=1.12 Rser=0.07 Lser=0
SYMBOL res -208 288 R90
WINDOW 0 0 56 VBottom 2
WINDOW 3 32 56 VTop 2
SYMATTR InstName R3
SYMATTR Value 220K
SYMBOL npn2 -112 256 R0
SYMATTR InstName Q2
SYMATTR Value BC847C
SYMBOL res -96 288 R90
WINDOW 0 0 56 VBottom 2
WINDOW 3 32 56 VTop 2
SYMATTR InstName R8
SYMATTR Value 25K
SYMBOL npn2 -480 256 R0
SYMATTR InstName Q4
SYMATTR Value BC847C
SYMBOL res -464 288 R90
WINDOW 0 0 56 VBottom 2
WINDOW 3 32 56 VTop 2
SYMATTR InstName R9
SYMATTR Value 25K
SYMBOL zener 320 -16 R180
WINDOW 0 24 64 Left 2
WINDOW 3 24 0 Left 2
SYMATTR InstName D1
SYMATTR Value BZX84C15L
SYMBOL res 688 -32 R0
SYMATTR InstName R10
SYMATTR Value 27
SYMBOL res 688 -112 R0
SYMATTR InstName R24
SYMATTR Value 27
SYMBOL res 720 -112 R90
WINDOW 0 0 56 VBottom 2
WINDOW 3 32 56 VTop 2
SYMATTR InstName R25
SYMATTR Value 27
SYMBOL res 640 -112 R90
WINDOW 0 0 56 VBottom 2
WINDOW 3 32 56 VTop 2
SYMATTR InstName R26
SYMATTR Value 27
TEXT -72 392 Left 2 !.tran 0 50 0
